2024_89_CemigReconfigurationCases/1_SEsCemig_2/TOTU03/TOTU03Transformadores.dss
new transformer.1013553 Phases=1,Windings=3,Buses=[BMT173723993.1 BBT5828818.1.0 BBT5828818.0.2],Conns=[wye wye wye],kvs=[7.967 0.12 0.12],kvas=[5.000000000 5.000000000 5.000000000],Taps=[1,1.000000000,1.000000000],%loadloss=1.900000000,%noloadloss=0.600000000
new transformer.1013630 Phases=1,Windings=3,Buses=[BMT154666169.1 BBT5829196.1.0 BBT5829196.0.2],Conns=[wye wye wye],kvs=[7.967 0.12 0.12],kvas=[5.000000000 5.000000000 5.000000000],Taps=[1,1.000000000,1.000000000],%loadloss=1.900000000,%noloadloss=0.600000000
new transformer.1013784 Phases=1,Windings=3,Buses=[BMT109437785.1 BBT5830939.1.0 BBT5830939.0.2],Conns=[wye wye wye],kvs=[7.967 0.12 0.12],kvas=[5.000000000 5.000000000 5.000000000],Taps=[1,1.000000000,1.000000000],%loadloss=1.900000000,%noloadloss=0.600000000
new transformer.1013819 Phases=1,Windings=3,Buses=[BMT103542189.1 BBT5831114.1.0 BBT5831114.0.2],Conns=[wye wye wye],kvs=[7.967 0.12 0.12],kvas=[15.000000000 15.000000000 15.000000000],Taps=[1,1.000000000,1.000000000],%loadloss=1.600000000,%noloadloss=0.400000000
new transformer.1013826 Phases=1,Windings=3,Buses=[BMT109437806.1 BBT5831156.1.0 BBT5831156.0.2],Conns=[wye wye wye],kvs=[7.967 0.12 0.12],kvas=[5.000000000 5.000000000 5.000000000],Taps=[1,1.000000000,1.000000000],%loadloss=1.900000000,%noloadloss=0.600000000
new transformer.1013840 Phases=1,Windings=3,Buses=[BMT109437820.1 BBT5831198.1.0 BBT5831198.0.2],Conns=[wye wye wye],kvs=[7.967 0.12 0.12],kvas=[15.000000000 15.000000000 15.000000000],Taps=[1,1.000000000,1.000000000],%loadloss=1.600000000,%noloadloss=0.400000000
new transformer.1013847 Phases=1,Windings=3,Buses=[BMT109437834.1 BBT5831296.1.0 BBT5831296.0.2],Conns=[wye wye wye],kvs=[7.967 0.12 0.12],kvas=[5.000000000 5.000000000 5.000000000],Taps=[1,1.000000000,1.000000000],%loadloss=1.900000000,%noloadloss=0.600000000
new transformer.1013854 Phases=1,Windings=3,Buses=[BMT109437827.1 BBT5831380.1.0 BBT5831380.0.2],Conns=[wye wye wye],kvs=[7.967 0.12 0.12],kvas=[5.000000000 5.000000000 5.000000000],Taps=[1,1.000000000,1.000000000],%loadloss=1.900000000,%noloadloss=0.600000000
new transformer.1014050 Phases=1,Windings=3,Buses=[BMT121233926.3 BBT5834558.1.0 BBT5834558.0.2],Conns=[wye wye wye],kvs=[7.967 0.12 0.12],kvas=[5.000000000 5.000000000 5.000000000],Taps=[1,1.000000000,1.000000000],%loadloss=1.900000000,%noloadloss=0.600000000
new transformer.1014064 Phases=1,Windings=3,Buses=[BMT121233940.3 BBT5834635.1.0 BBT5834635.0.2],Conns=[wye wye wye],kvs=[7.967 0.12 0.12],kvas=[5.000000000 5.000000000 5.000000000],Taps=[1,1.000000000,1.000000000],%loadloss=1.900000000,%noloadloss=0.600000000
new transformer.1014078 Phases=1,Windings=3,Buses=[BMT121233933.3 BBT5834677.1.0 BBT5834677.0.2],Conns=[wye wye wye],kvs=[7.967 0.12 0.12],kvas=[5.000000000 5.000000000 5.000000000],Taps=[1,1.000000000,1.000000000],%loadloss=1.900000000,%noloadloss=0.600000000
new transformer.1014099 Phases=1,Windings=3,Buses=[BMT121231560.3 BBT5834747.1.0 BBT5834747.0.2],Conns=[wye wye wye],kvs=[7.967 0.12 0.12],kvas=[10.000000000 10.000000000 10.000000000],Taps=[1,1.000000000,1.000000000],%loadloss=1.800000000,%noloadloss=0.450000000
new transformer.1014106 Phases=1,Windings=3,Buses=[BMT121231553.3 BBT5834838.1.0 BBT5834838.0.2],Conns=[wye wye wye],kvs=[7.967 0.12 0.12],kvas=[5.000000000 5.000000000 5.000000000],Taps=[1,1.000000000,1.000000000],%loadloss=1.900000000,%noloadloss=0.600000000
new transformer.1014120 Phases=1,Windings=3,Buses=[BMT121231924.3 BBT5834922.1.0 BBT5834922.0.2],Conns=[wye wye wye],kvs=[7.967 0.12 0.12],kvas=[5.000000000 5.000000000 5.000000000],Taps=[1,1.000000000,1.000000000],%loadloss=1.900000000,%noloadloss=0.600000000
new transformer.1014127 Phases=1,Windings=3,Buses=[BMT121231917.3 BBT5834950.1.0 BBT5834950.0.2],Conns=[wye wye wye],kvs=[7.967 0.12 0.12],kvas=[5.000000000 5.000000000 5.000000000],Taps=[1,1.000000000,1.000000000],%loadloss=1.900000000,%noloadloss=0.600000000
new transformer.1014134 Phases=1,Windings=3,Buses=[BMT121232267.3 BBT5835090.1.0 BBT5835090.0.2],Conns=[wye wye wye],kvs=[7.967 0.12 0.12],kvas=[5.000000000 5.000000000 5.000000000],Taps=[1,1.000000000,1.000000000],%loadloss=1.900000000,%noloadloss=0.600000000
new transformer.1014309 Phases=1,Windings=3,Buses=[BMT153480284.3 BBT5837323.1.0 BBT5837323.0.2],Conns=[wye wye wye],kvs=[7.967 0.12 0.12],kvas=[5.000000000 5.000000000 5.000000000],Taps=[1,1.000000000,1.000000000],%loadloss=1.900000000,%noloadloss=0.600000000
new transformer.1014414 Phases=1,Windings=3,Buses=[BMT103542532.1 BBT5838870.1.0 BBT5838870.0.2],Conns=[wye wye wye],kvs=[7.967 0.12 0.12],kvas=[5.000000000 5.000000000 5.000000000],Taps=[1,1.000000000,1.000000000],%loadloss=1.900000000,%noloadloss=0.600000000
new transformer.1014421 Phases=1,Windings=3,Buses=[BMT103542560.1 BBT5839038.1.0 BBT5839038.0.2],Conns=[wye wye wye],kvs=[7.967 0.12 0.12],kvas=[5.000000000 5.000000000 5.000000000],Taps=[1,1.000000000,1.000000000],%loadloss=1.900000000,%noloadloss=0.600000000
new transformer.1014428 Phases=1,Windings=3,Buses=[BMT103542574.1 BBT5839052.1.0 BBT5839052.0.2],Conns=[wye wye wye],kvs=[7.967 0.12 0.12],kvas=[5.000000000 5.000000000 5.000000000],Taps=[1,1.000000000,1.000000000],%loadloss=1.900000000,%noloadloss=0.600000000
new transformer.1014435 Phases=1,Windings=3,Buses=[BMT103542588.1 BBT5839234.1.0 BBT5839234.0.2],Conns=[wye wye wye],kvs=[7.967 0.12 0.12],kvas=[10.000000000 10.000000000 10.000000000],Taps=[1,1.000000000,1.000000000],%loadloss=1.800000000,%noloadloss=0.450000000
new transformer.1014449 Phases=1,Windings=3,Buses=[BMT103542581.1 BBT5839346.1.0 BBT5839346.0.2],Conns=[wye wye wye],kvs=[7.967 0.12 0.12],kvas=[5.000000000 5.000000000 5.000000000],Taps=[1,1.000000000,1.000000000],%loadloss=1.900000000,%noloadloss=0.600000000
new transformer.1014456 Phases=1,Windings=3,Buses=[BMT122168062.2 BBT5839997.1.0 BBT5839997.0.2],Conns=[wye wye wye],kvs=[7.967 0.12 0.12],kvas=[5.000000000 5.000000000 5.000000000],Taps=[1,1.000000000,1.000000000],%loadloss=1.900000000,%noloadloss=0.600000000
new transformer.1014533 Phases=1,Windings=3,Buses=[BMT122168076.2 BBT5850371.1.0 BBT5850371.0.2],Conns=[wye wye wye],kvs=[7.967 0.12 0.12],kvas=[5.000000000 5.000000000 5.000000000],Taps=[1,1.000000000,1.000000000],%loadloss=1.900000000,%noloadloss=0.600000000
new transformer.1014547 Phases=1,Windings=3,Buses=[BMT122168069.2 BBT5850518.1.0 BBT5850518.0.2],Conns=[wye wye wye],kvs=[7.967 0.12 0.12],kvas=[5.000000000 5.000000000 5.000000000],Taps=[1,1.000000000,1.000000000],%loadloss=1.900000000,%noloadloss=0.600000000
new transformer.1014561 Phases=1,Windings=3,Buses=[BMT122168090.2 BBT5850707.1.0 BBT5850707.0.2],Conns=[wye wye wye],kvs=[7.967 0.12 0.12],kvas=[5.000000000 5.000000000 5.000000000],Taps=[1,1.000000000,1.000000000],%loadloss=1.900000000,%noloadloss=0.600000000
new transformer.1014575 Phases=1,Windings=3,Buses=[BMT175371801.2 BBT5850966.1.0 BBT5850966.0.2],Conns=[wye wye wye],kvs=[7.967 0.12 0.12],kvas=[5.000000000 5.000000000 5.000000000],Taps=[1,1.000000000,1.000000000],%loadloss=1.900000000,%noloadloss=0.600000000
new transformer.1014603 Phases=1,Windings=3,Buses=[BMT103543288.1 BBT5851288.1.0 BBT5851288.0.2],Conns=[wye wye wye],kvs=[7.967 0.12 0.12],kvas=[5.000000000 5.000000000 5.000000000],Taps=[1,1.000000000,1.000000000],%loadloss=1.900000000,%noloadloss=0.600000000
new transformer.1014617 Phases=1,Windings=3,Buses=[BMT103542623.1 BBT5851442.1.0 BBT5851442.0.2],Conns=[wye wye wye],kvs=[7.967 0.12 0.12],kvas=[10.000000000 10.000000000 10.000000000],Taps=[1,1.000000000,1.000000000],%loadloss=1.800000000,%noloadloss=0.450000000
new transformer.1014652 Phases=1,Windings=3,Buses=[BMT103542833.1 BBT5851862.1.0 BBT5851862.0.2],Conns=[wye wye wye],kvs=[7.967 0.12 0.12],kvas=[5.000000000 5.000000000 5.000000000],Taps=[1,1.000000000,1.000000000],%loadloss=1.900000000,%noloadloss=0.600000000
new transformer.1014680 Phases=1,Windings=3,Buses=[BMT103542819.1 BBT5852345.1.0 BBT5852345.0.2],Conns=[wye wye wye],kvs=[7.967 0.12 0.12],kvas=[5.000000000 5.000000000 5.000000000],Taps=[1,1.000000000,1.000000000],%loadloss=1.900000000,%noloadloss=0.600000000
new transformer.1014708 Phases=1,Windings=3,Buses=[BMT121014091.2 BBT5853283.1.0 BBT5853283.0.2],Conns=[wye wye wye],kvs=[7.967 0.12 0.12],kvas=[5.000000000 5.000000000 5.000000000],Taps=[1,1.000000000,1.000000000],%loadloss=1.900000000,%noloadloss=0.600000000
new transformer.1014715 Phases=1,Windings=3,Buses=[BMT175371811.2 BBT5853304.1.0 BBT5853304.0.2],Conns=[wye wye wye],kvs=[7.967 0.12 0.12],kvas=[5.000000000 5.000000000 5.000000000],Taps=[1,1.000000000,1.000000000],%loadloss=1.900000000,%noloadloss=0.600000000
new transformer.1014722 Phases=1,Windings=3,Buses=[BMT175371810.2 BBT5853318.1.0 BBT5853318.0.2],Conns=[wye wye wye],kvs=[7.967 0.12 0.12],kvas=[5.000000000 5.000000000 5.000000000],Taps=[1,1.000000000,1.000000000],%loadloss=1.900000000,%noloadloss=0.600000000
new transformer.1014729 Phases=1,Windings=3,Buses=[BMT122126566.3 BBT5853444.1.0 BBT5853444.0.2],Conns=[wye wye wye],kvs=[7.967 0.12 0.12],kvas=[5.000000000 5.000000000 5.000000000],Taps=[1,1.000000000,1.000000000],%loadloss=1.900000000,%noloadloss=0.600000000
new transformer.1014736 Phases=1,Windings=3,Buses=[BMT165064952.1 BBT5853556.1.0 BBT5853556.0.2],Conns=[wye wye wye],kvs=[7.967 0.12 0.12],kvas=[5.000000000 5.000000000 5.000000000],Taps=[1,1.000000000,1.000000000],%loadloss=1.900000000,%noloadloss=0.600000000
new transformer.1014743 Phases=1,Windings=3,Buses=[BMT103410925.2 BBT5853906.1.0 BBT5853906.0.2],Conns=[wye wye wye],kvs=[7.967 0.12 0.12],kvas=[5.000000000 5.000000000 5.000000000],Taps=[1,1.000000000,1.000000000],%loadloss=1.900000000,%noloadloss=0.600000000
new transformer.1014750 Phases=1,Windings=3,Buses=[BMT103410953.2 BBT5853976.1.0 BBT5853976.0.2],Conns=[wye wye wye],kvs=[7.967 0.12 0.12],kvas=[5.000000000 5.000000000 5.000000000],Taps=[1,1.000000000,1.000000000],%loadloss=1.900000000,%noloadloss=0.600000000
new transformer.1028575 Phases=1,Windings=3,Buses=[BMT103351838.2 BBT6456018.1.0 BBT6456018.0.2],Conns=[wye wye wye],kvs=[7.967 0.12 0.12],kvas=[10.000000000 10.000000000 10.000000000],Taps=[1,1.000000000,1.000000000],%loadloss=1.800000000,%noloadloss=0.450000000
new transformer.1028862 Phases=1,Windings=3,Buses=[BMT155026305.1 BBT6462465.1.0 BBT6462465.0.2],Conns=[wye wye wye],kvs=[7.967 0.12 0.12],kvas=[5.000000000 5.000000000 5.000000000],Taps=[1,1.000000000,1.000000000],%loadloss=1.900000000,%noloadloss=0.600000000
new transformer.1028876 Phases=1,Windings=3,Buses=[BMT155026309.1 BBT6462493.1.0 BBT6462493.0.2],Conns=[wye wye wye],kvs=[7.967 0.12 0.12],kvas=[5.000000000 5.000000000 5.000000000],Taps=[1,1.000000000,1.000000000],%loadloss=1.900000000,%noloadloss=0.600000000
new transformer.1028883 Phases=1,Windings=3,Buses=[BMT155026311.1 BBT6462507.1.0 BBT6462507.0.2],Conns=[wye wye wye],kvs=[7.967 0.12 0.12],kvas=[5.000000000 5.000000000 5.000000000],Taps=[1,1.000000000,1.000000000],%loadloss=1.900000000,%noloadloss=0.600000000
new transformer.1028911 Phases=1,Windings=3,Buses=[BMT155026274.1 BBT6462661.1.0 BBT6462661.0.2],Conns=[wye wye wye],kvs=[7.967 0.12 0.12],kvas=[5.000000000 5.000000000 5.000000000],Taps=[1,1.000000000,1.000000000],%loadloss=1.900000000,%noloadloss=0.600000000
new transformer.1029121 Phases=1,Windings=3,Buses=[BMT172527125.3 BBT6468324.1.0 BBT6468324.0.2],Conns=[wye wye wye],kvs=[7.967 0.12 0.12],kvas=[5.000000000 5.000000000 5.000000000],Taps=[1,1.000000000,1.000000000],%loadloss=1.900000000,%noloadloss=0.600000000
new transformer.1029163 Phases=1,Windings=3,Buses=[BMT173134832.1 BBT6469262.1.0 BBT6469262.0.2],Conns=[wye wye wye],kvs=[7.967 0.12 0.12],kvas=[5.000000000 5.000000000 5.000000000],Taps=[1,1.000000000,1.000000000],%loadloss=1.900000000,%noloadloss=0.600000000
new transformer.1036240 Phases=1,Windings=3,Buses=[BMT103390912.2 BBT6661447.1.0 BBT6661447.0.2],Conns=[wye wye wye],kvs=[7.967 0.12 0.12],kvas=[10.000000000 10.000000000 10.000000000],Taps=[1,1.000000000,1.000000000],%loadloss=1.800000000,%noloadloss=0.450000000
new transformer.1036289 Phases=1,Windings=3,Buses=[BMT174953890.1 BBT6665101.1.0 BBT6665101.0.2],Conns=[wye wye wye],kvs=[7.967 0.12 0.12],kvas=[5.000000000 5.000000000 5.000000000],Taps=[1,1.000000000,1.000000000],%loadloss=1.900000000,%noloadloss=0.600000000
new transformer.1010641 Phases=1,Windings=3,Buses=[BMT160252536.3 BBT5762311.1.0 BBT5762311.0.2],Conns=[wye wye wye],kvs=[7.967 0.12 0.12],kvas=[5.000000000 5.000000000 5.000000000],Taps=[1,1.000000000,1.000000000],%loadloss=1.900000000,%noloadloss=0.600000000
new transformer.1016682 Phases=1,Windings=3,Buses=[BMT171007958.2 BBT5945508.1.0 BBT5945508.0.2],Conns=[wye wye wye],kvs=[7.967 0.12 0.12],kvas=[5.000000000 5.000000000 5.000000000],Taps=[1,1.000000000,1.000000000],%loadloss=1.900000000,%noloadloss=0.600000000
new transformer.1016773 Phases=1,Windings=3,Buses=[BMT103402840.2 BBT5954846.1.0 BBT5954846.0.2],Conns=[wye wye wye],kvs=[7.967 0.12 0.12],kvas=[10.000000000 10.000000000 10.000000000],Taps=[1,1.000000000,1.000000000],%loadloss=1.800000000,%noloadloss=0.450000000
new transformer.1016801 Phases=1,Windings=3,Buses=[BMT158952525.3 BBT5958059.1.0 BBT5958059.0.2],Conns=[wye wye wye],kvs=[7.967 0.12 0.12],kvas=[5.000000000 5.000000000 5.000000000],Taps=[1,1.000000000,1.000000000],%loadloss=1.900000000,%noloadloss=0.600000000
new transformer.1016836 Phases=3,Windings=2,Buses=[BMT175138234.1.2.3 BBT5960362.1.2.3.0],Conns=[delta wye],kvs=[13.8 0.22],kvas=[45.000000000 45.000000000],Taps=[1,1.000000000],%loadloss=1.522000000,%noloadloss=0.377777778
new transformer.1016899 Phases=1,Windings=3,Buses=[BMT123014663.1 BBT5964373.1.0 BBT5964373.0.2],Conns=[wye wye wye],kvs=[7.967 0.12 0.12],kvas=[10.000000000 10.000000000 10.000000000],Taps=[1,1.000000000,1.000000000],%loadloss=1.800000000,%noloadloss=0.450000000
new transformer.1018446 Phases=1,Windings=3,Buses=[BMT103360665.1 BBT6193854.1.0 BBT6193854.0.2],Conns=[wye wye wye],kvs=[7.967 0.12 0.12],kvas=[15.000000000 15.000000000 15.000000000],Taps=[1,1.000000000,1.000000000],%loadloss=1.600000000,%noloadloss=0.400000000
new transformer.1018467 Phases=1,Windings=3,Buses=[BMT103402693.2 BBT6204956.1.0 BBT6204956.0.2],Conns=[wye wye wye],kvs=[7.967 0.12 0.12],kvas=[5.000000000 5.000000000 5.000000000],Taps=[1,1.000000000,1.000000000],%loadloss=1.900000000,%noloadloss=0.600000000
new transformer.1023619 Phases=1,Windings=3,Buses=[BMT155026310.1 BBT6324635.1.0 BBT6324635.0.2],Conns=[wye wye wye],kvs=[7.967 0.12 0.12],kvas=[5.000000000 5.000000000 5.000000000],Taps=[1,1.000000000,1.000000000],%loadloss=1.900000000,%noloadloss=0.600000000
new transformer.1023626 Phases=1,Windings=3,Buses=[BMT155026270.1 BBT6324768.1.0 BBT6324768.0.2],Conns=[wye wye wye],kvs=[7.967 0.12 0.12],kvas=[5.000000000 5.000000000 5.000000000],Taps=[1,1.000000000,1.000000000],%loadloss=1.900000000,%noloadloss=0.600000000
new transformer.1023633 Phases=1,Windings=3,Buses=[BMT155026272.1 BBT6324922.1.0 BBT6324922.0.2],Conns=[wye wye wye],kvs=[7.967 0.12 0.12],kvas=[5.000000000 5.000000000 5.000000000],Taps=[1,1.000000000,1.000000000],%loadloss=1.900000000,%noloadloss=0.600000000
new transformer.1030752 Phases=1,Windings=3,Buses=[BMT166866675.3 BBT6507538.1.0 BBT6507538.0.2],Conns=[wye wye wye],kvs=[7.967 0.12 0.12],kvas=[5.000000000 5.000000000 5.000000000],Taps=[1,1.000000000,1.000000000],%loadloss=1.900000000,%noloadloss=0.600000000
new transformer.1030948 Phases=1,Windings=3,Buses=[BMT173171897.1 BBT6509358.1.0 BBT6509358.0.2],Conns=[wye wye wye],kvs=[7.967 0.12 0.12],kvas=[5.000000000 5.000000000 5.000000000],Taps=[1,1.000000000,1.000000000],%loadloss=1.900000000,%noloadloss=0.600000000
new transformer.1031235 Phases=1,Windings=3,Buses=[BMT153326215.3 BBT6513243.1.0 BBT6513243.0.2],Conns=[wye wye wye],kvs=[7.967 0.12 0.12],kvas=[15.000000000 15.000000000 15.000000000],Taps=[1,1.000000000,1.000000000],%loadloss=1.600000000,%noloadloss=0.400000000
new transformer.1031263 Phases=1,Windings=3,Buses=[BMT103359440.1 BBT6514629.1.0 BBT6514629.0.2],Conns=[wye wye wye],kvs=[7.967 0.12 0.12],kvas=[15.000000000 15.000000000 15.000000000],Taps=[1,1.000000000,1.000000000],%loadloss=1.600000000,%noloadloss=0.400000000
new transformer.1031270 Phases=1,Windings=3,Buses=[BMT175038231.1 BBT6514720.1.0 BBT6514720.0.2],Conns=[wye wye wye],kvs=[7.967 0.12 0.12],kvas=[15.000000000 15.000000000 15.000000000],Taps=[1,1.000000000,1.000000000],%loadloss=1.600000000,%noloadloss=0.400000000
new transformer.1037171 Phases=1,Windings=3,Buses=[BMT150526537.1 BBT6680949.1.0 BBT6680949.0.2],Conns=[wye wye wye],kvs=[7.967 0.12 0.12],kvas=[10.000000000 10.000000000 10.000000000],Taps=[1,1.000000000,1.000000000],%loadloss=1.800000000,%noloadloss=0.450000000
new transformer.1037409 Phases=1,Windings=3,Buses=[BMT176785666.1 BBT6692163.1.0 BBT6692163.0.2],Conns=[wye wye wye],kvs=[7.967 0.12 0.12],kvas=[15.000000000 15.000000000 15.000000000],Taps=[1,1.000000000,1.000000000],%loadloss=1.600000000,%noloadloss=0.400000000
new transformer.1037815 Phases=3,Windings=2,Buses=[BMT171999776.1.2.3 BBT6704714.1.2.3.0],Conns=[delta wye],kvs=[13.8 0.22],kvas=[75.000000000 75.000000000],Taps=[1,1.000000000],%loadloss=1.340000000,%noloadloss=0.340000000
new transformer.1037822 Phases=1,Windings=3,Buses=[BMT103416028.1 BBT6704728.1.0 BBT6704728.0.2],Conns=[wye wye wye],kvs=[7.967 0.12 0.12],kvas=[35.000000000 35.000000000 35.000000000],Taps=[1,1.000000000,1.000000000],%loadloss=1.410000000,%noloadloss=0.433000000
new transformer.1038270 Phases=1,Windings=3,Buses=[BMT151316478.1 BBT6723649.1.0 BBT6723649.0.2],Conns=[wye wye wye],kvs=[7.967 0.12 0.12],kvas=[15.000000000 15.000000000 15.000000000],Taps=[1,1.000000000,1.000000000],%loadloss=1.600000000,%noloadloss=0.400000000
new transformer.1045067 Phases=1,Windings=3,Buses=[BMT166054854.2 BBT7293386.1.0 BBT7293386.0.2],Conns=[wye wye wye],kvs=[7.967 0.12 0.12],kvas=[5.000000000 5.000000000 5.000000000],Taps=[1,1.000000000,1.000000000],%loadloss=1.900000000,%noloadloss=0.600000000
new transformer.1012965 Phases=1,Windings=3,Buses=[BMT174737571.1 BBT5824247.1.0 BBT5824247.0.2],Conns=[wye wye wye],kvs=[7.967 0.12 0.12],kvas=[10.000000000 10.000000000 10.000000000],Taps=[1,1.000000000,1.000000000],%loadloss=1.800000000,%noloadloss=0.450000000
new transformer.1018607 Phases=1,Windings=3,Buses=[BMT103401986.3 BBT6211879.1.0 BBT6211879.0.2],Conns=[wye wye wye],kvs=[7.967 0.12 0.12],kvas=[5.000000000 5.000000000 5.000000000],Taps=[1,1.000000000,1.000000000],%loadloss=1.900000000,%noloadloss=0.600000000
new transformer.1018614 Phases=1,Windings=3,Buses=[BMT103401993.3 BBT6212040.1.0 BBT6212040.0.2],Conns=[wye wye wye],kvs=[7.967 0.12 0.12],kvas=[5.000000000 5.000000000 5.000000000],Taps=[1,1.000000000,1.000000000],%loadloss=1.900000000,%noloadloss=0.600000000
new transformer.1019888 Phases=1,Windings=3,Buses=[BMT162535739.3 BBT6241244.1.0 BBT6241244.0.2],Conns=[wye wye wye],kvs=[7.967 0.12 0.12],kvas=[5.000000000 5.000000000 5.000000000],Taps=[1,1.000000000,1.000000000],%loadloss=1.900000000,%noloadloss=0.600000000
new transformer.1020063 Phases=1,Windings=3,Buses=[BMT161593365.1 BBT6243372.1.0 BBT6243372.0.2],Conns=[wye wye wye],kvs=[7.967 0.12 0.12],kvas=[5.000000000 5.000000000 5.000000000],Taps=[1,1.000000000,1.000000000],%loadloss=1.900000000,%noloadloss=0.600000000
new transformer.1020371 Phases=1,Windings=3,Buses=[BMT176138467.1 BBT6257547.1.0 BBT6257547.0.2],Conns=[wye wye wye],kvs=[7.967 0.12 0.12],kvas=[10.000000000 10.000000000 10.000000000],Taps=[1,1.000000000,1.000000000],%loadloss=1.800000000,%noloadloss=0.450000000
new transformer.1026027 Phases=1,Windings=3,Buses=[BMT103400453.2 BBT6381608.1.0 BBT6381608.0.2],Conns=[wye wye wye],kvs=[7.967 0.12 0.12],kvas=[5.000000000 5.000000000 5.000000000],Taps=[1,1.000000000,1.000000000],%loadloss=1.900000000,%noloadloss=0.600000000
new transformer.1026034 Phases=1,Windings=3,Buses=[BMT103400460.2 BBT6381629.1.0 BBT6381629.0.2],Conns=[wye wye wye],kvs=[7.967 0.12 0.12],kvas=[5.000000000 5.000000000 5.000000000],Taps=[1,1.000000000,1.000000000],%loadloss=1.900000000,%noloadloss=0.600000000
new transformer.1026153 Phases=1,Windings=3,Buses=[BMT170887669.3 BBT6382721.1.0 BBT6382721.0.2],Conns=[wye wye wye],kvs=[7.967 0.12 0.12],kvas=[5.000000000 5.000000000 5.000000000],Taps=[1,1.000000000,1.000000000],%loadloss=1.900000000,%noloadloss=0.600000000
new transformer.1027455 Phases=1,Windings=3,Buses=[BMT103402875.2 BBT6436124.1.0 BBT6436124.0.2],Conns=[wye wye wye],kvs=[7.967 0.12 0.12],kvas=[10.000000000 10.000000000 10.000000000],Taps=[1,1.000000000,1.000000000],%loadloss=1.800000000,%noloadloss=0.450000000
new transformer.1027483 Phases=1,Windings=3,Buses=[BMT103402882.2 BBT6436250.1.0 BBT6436250.0.2],Conns=[wye wye wye],kvs=[7.967 0.12 0.12],kvas=[10.000000000 10.000000000 10.000000000],Taps=[1,1.000000000,1.000000000],%loadloss=1.800000000,%noloadloss=0.450000000
new transformer.1033650 Phases=1,Windings=3,Buses=[BMT159303037.3 BBT6565491.1.0 BBT6565491.0.2],Conns=[wye wye wye],kvs=[7.967 0.12 0.12],kvas=[10.000000000 10.000000000 10.000000000],Taps=[1,1.000000000,1.000000000],%loadloss=1.800000000,%noloadloss=0.450000000
new transformer.1034728 Phases=3,Windings=2,Buses=[BMT176045416.1.2.3 BBT6592791.1.2.3.0],Conns=[delta wye],kvs=[13.8 0.22],kvas=[30.000000000 30.000000000],Taps=[1,1.000000000],%loadloss=1.667000000,%noloadloss=0.433333333
new transformer.1035253 Phases=3,Windings=2,Buses=[BMT158134371.1.2.3 BBT6624683.1.2.3.0],Conns=[delta wye],kvs=[13.8 0.22],kvas=[75.000000000 75.000000000],Taps=[1,1.000000000],%loadloss=1.340000000,%noloadloss=0.340000000
new transformer.1041182 Phases=1,Windings=3,Buses=[BMT176654082.1 BBT7034449.1.0 BBT7034449.0.2],Conns=[wye wye wye],kvs=[7.967 0.12 0.12],kvas=[10.000000000 10.000000000 10.000000000],Taps=[1,1.000000000,1.000000000],%loadloss=1.800000000,%noloadloss=0.450000000
new transformer.1041476 Phases=3,Windings=2,Buses=[BMT164394851.1.2.3 BBT7057017.1.2.3.0],Conns=[delta wye],kvs=[13.8 0.22],kvas=[75.000000000 75.000000000],Taps=[1,1.000000000],%loadloss=1.340000000,%noloadloss=0.340000000
new transformer.1041483 Phases=3,Windings=2,Buses=[BMT172239089.1.2.3 BBT7057136.1.2.3.0],Conns=[delta wye],kvs=[13.8 0.22],kvas=[30.000000000 30.000000000],Taps=[1,1.000000000],%loadloss=1.667000000,%noloadloss=0.433333333
new transformer.1042386 Phases=1,Windings=3,Buses=[BMT169997680.3 BBT7145987.1.0 BBT7145987.0.2],Conns=[wye wye wye],kvs=[7.967 0.12 0.12],kvas=[10.000000000 10.000000000 10.000000000],Taps=[1,1.000000000,1.000000000],%loadloss=1.800000000,%noloadloss=0.450000000
new transformer.1042638 Phases=1,Windings=3,Buses=[BMT103539823.2 BBT7179279.1.0 BBT7179279.0.2],Conns=[wye wye wye],kvs=[7.967 0.12 0.12],kvas=[5.000000000 5.000000000 5.000000000],Taps=[1,1.000000000,1.000000000],%loadloss=1.900000000,%noloadloss=0.600000000
new transformer.1048525 Phases=1,Windings=3,Buses=[BMT166024469.2 BBT7438307.1.0 BBT7438307.0.2],Conns=[wye wye wye],kvs=[7.967 0.12 0.12],kvas=[10.000000000 10.000000000 10.000000000],Taps=[1,1.000000000,1.000000000],%loadloss=1.800000000,%noloadloss=0.450000000
new transformer.1049141 Phases=1,Windings=3,Buses=[BMT103365789.2 BBT7456227.1.0 BBT7456227.0.2],Conns=[wye wye wye],kvs=[7.967 0.12 0.12],kvas=[5.000000000 5.000000000 5.000000000],Taps=[1,1.000000000,1.000000000],%loadloss=1.900000000,%noloadloss=0.600000000
new transformer.1049148 Phases=1,Windings=3,Buses=[BMT103365796.2 BBT7456724.1.0 BBT7456724.0.2],Conns=[wye wye wye],kvs=[7.967 0.12 0.12],kvas=[5.000000000 5.000000000 5.000000000],Taps=[1,1.000000000,1.000000000],%loadloss=1.900000000,%noloadloss=0.600000000
new transformer.1049183 Phases=1,Windings=3,Buses=[BMT174332160.1 BBT7458180.1.0 BBT7458180.0.2],Conns=[wye wye wye],kvs=[7.967 0.12 0.12],kvas=[5.000000000 5.000000000 5.000000000],Taps=[1,1.000000000,1.000000000],%loadloss=1.900000000,%noloadloss=0.600000000
new transformer.1001464 Phases=1,Windings=3,Buses=[BMT150051871.2 BBT5699038.1.0 BBT5699038.0.2],Conns=[wye wye wye],kvs=[7.967 0.12 0.12],kvas=[10.000000000 10.000000000 10.000000000],Taps=[1,1.000000000,1.000000000],%loadloss=1.800000000,%noloadloss=0.450000000
new transformer.1008226 Phases=1,Windings=3,Buses=[BMT169161115.3 BBT5739869.1.0 BBT5739869.0.2],Conns=[wye wye wye],kvs=[7.967 0.12 0.12],kvas=[5.000000000 5.000000000 5.000000000],Taps=[1,1.000000000,1.000000000],%loadloss=1.900000000,%noloadloss=0.600000000
new transformer.1008261 Phases=1,Windings=3,Buses=[BMT169161121.3 BBT5739995.1.0 BBT5739995.0.2],Conns=[wye wye wye],kvs=[7.967 0.12 0.12],kvas=[15.000000000 15.000000000 15.000000000],Taps=[1,1.000000000,1.000000000],%loadloss=1.600000000,%noloadloss=0.400000000
new transformer.1008310 Phases=1,Windings=3,Buses=[BMT169161119.3 BBT5740247.1.0 BBT5740247.0.2],Conns=[wye wye wye],kvs=[7.967 0.12 0.12],kvas=[5.000000000 5.000000000 5.000000000],Taps=[1,1.000000000,1.000000000],%loadloss=1.900000000,%noloadloss=0.600000000
new transformer.1008366 Phases=1,Windings=3,Buses=[BMT169161122.3 BBT5740597.1.0 BBT5740597.0.2],Conns=[wye wye wye],kvs=[7.967 0.12 0.12],kvas=[5.000000000 5.000000000 5.000000000],Taps=[1,1.000000000,1.000000000],%loadloss=1.900000000,%noloadloss=0.600000000
new transformer.1016374 Phases=1,Windings=3,Buses=[BMT103352230.3 BBT5927273.1.0 BBT5927273.0.2],Conns=[wye wye wye],kvs=[7.967 0.12 0.12],kvas=[5.000000000 5.000000000 5.000000000],Taps=[1,1.000000000,1.000000000],%loadloss=1.900000000,%noloadloss=0.600000000
new transformer.1016388 Phases=1,Windings=3,Buses=[BMT148456051.1 BBT5929527.1.0 BBT5929527.0.2],Conns=[wye wye wye],kvs=[7.967 0.12 0.12],kvas=[5.000000000 5.000000000 5.000000000],Taps=[1,1.000000000,1.000000000],%loadloss=1.900000000,%noloadloss=0.600000000
new transformer.1016395 Phases=1,Windings=3,Buses=[BMT148456052.1 BBT5929555.1.0 BBT5929555.0.2],Conns=[wye wye wye],kvs=[7.967 0.12 0.12],kvas=[5.000000000 5.000000000 5.000000000],Taps=[1,1.000000000,1.000000000],%loadloss=1.900000000,%noloadloss=0.600000000
new transformer.1016430 Phases=1,Windings=3,Buses=[BMT136472359.3 BBT5936226.1.0 BBT5936226.0.2],Conns=[wye wye wye],kvs=[7.967 0.12 0.12],kvas=[5.000000000 5.000000000 5.000000000],Taps=[1,1.000000000,1.000000000],%loadloss=1.900000000,%noloadloss=0.600000000
new transformer.1020504 Phases=1,Windings=3,Buses=[BMT103419213.1 BBT6259388.1.0 BBT6259388.0.2],Conns=[wye wye wye],kvs=[7.967 0.12 0.12],kvas=[10.000000000 10.000000000 10.000000000],Taps=[1,1.000000000,1.000000000],%loadloss=1.800000000,%noloadloss=0.450000000
new transformer.1020539 Phases=1,Windings=3,Buses=[BMT176138470.1 BBT6259633.1.0 BBT6259633.0.2],Conns=[wye wye wye],kvs=[7.967 0.12 0.12],kvas=[5.000000000 5.000000000 5.000000000],Taps=[1,1.000000000,1.000000000],%loadloss=1.900000000,%noloadloss=0.600000000
new transformer.1020966 Phases=1,Windings=3,Buses=[BMT103419206.1 BBT6265408.1.0 BBT6265408.0.2],Conns=[wye wye wye],kvs=[7.967 0.12 0.12],kvas=[5.000000000 5.000000000 5.000000000],Taps=[1,1.000000000,1.000000000],%loadloss=1.900000000,%noloadloss=0.600000000
new transformer.1025915 Phases=1,Windings=3,Buses=[BMT103400502.2 BBT6379214.1.0 BBT6379214.0.2],Conns=[wye wye wye],kvs=[7.967 0.12 0.12],kvas=[5.000000000 5.000000000 5.000000000],Taps=[1,1.000000000,1.000000000],%loadloss=1.900000000,%noloadloss=0.600000000
new transformer.1032565 Phases=1,Windings=3,Buses=[BMT103395812.1 BBT6535804.1.0 BBT6535804.0.2],Conns=[wye wye wye],kvs=[7.967 0.12 0.12],kvas=[5.000000000 5.000000000 5.000000000],Taps=[1,1.000000000,1.000000000],%loadloss=1.900000000,%noloadloss=0.600000000
new transformer.1032705 Phases=3,Windings=2,Buses=[BMT103338790.1.2.3 BBT6545023.1.2.3.0],Conns=[delta wye],kvs=[13.8 0.22],kvas=[45.000000000 45.000000000],Taps=[1,1.000000000],%loadloss=1.522000000,%noloadloss=0.377777778
new transformer.1039236 Phases=3,Windings=2,Buses=[BMT103338958.1.2.3 BBT6769653.1.2.3.0],Conns=[delta wye],kvs=[13.8 0.22],kvas=[45.000000000 45.000000000],Taps=[1,1.000000000],%loadloss=1.522000000,%noloadloss=0.377777778
new transformer.1040328 Phases=1,Windings=3,Buses=[BMT103359048.1 BBT6848025.1.0 BBT6848025.0.2],Conns=[wye wye wye],kvs=[7.967 0.12 0.12],kvas=[10.000000000 10.000000000 10.000000000],Taps=[1,1.000000000,1.000000000],%loadloss=1.800000000,%noloadloss=0.450000000
new transformer.1046705 Phases=1,Windings=3,Buses=[BMT155034496.1 BBT7365388.1.0 BBT7365388.0.2],Conns=[wye wye wye],kvs=[7.967 0.12 0.12],kvas=[10.000000000 10.000000000 10.000000000],Taps=[1,1.000000000,1.000000000],%loadloss=1.800000000,%noloadloss=0.450000000
new transformer.1047083 Phases=1,Windings=3,Buses=[BMT103398423.2 BBT7380928.1.0 BBT7380928.0.2],Conns=[wye wye wye],kvs=[7.967 0.12 0.12],kvas=[5.000000000 5.000000000 5.000000000],Taps=[1,1.000000000,1.000000000],%loadloss=1.900000000,%noloadloss=0.600000000
new transformer.1047090 Phases=1,Windings=3,Buses=[BMT103398367.2 BBT7381159.1.0 BBT7381159.0.2],Conns=[wye wye wye],kvs=[7.967 0.12 0.12],kvas=[10.000000000 10.000000000 10.000000000],Taps=[1,1.000000000,1.000000000],%loadloss=1.800000000,%noloadloss=0.450000000
new transformer.1047755 Phases=1,Windings=3,Buses=[BMT103403547.1 BBT7410146.1.0 BBT7410146.0.2],Conns=[wye wye wye],kvs=[7.967 0.12 0.12],kvas=[5.000000000 5.000000000 5.000000000],Taps=[1,1.000000000,1.000000000],%loadloss=1.900000000,%noloadloss=0.600000000
new transformer.1045074 Phases=1,Windings=3,Buses=[BMT153023105.1 BBT7293400.1.0 BBT7293400.0.2],Conns=[wye wye wye],kvs=[7.967 0.12 0.12],kvas=[10.000000000 10.000000000 10.000000000],Taps=[1,1.000000000,1.000000000],%loadloss=1.800000000,%noloadloss=0.450000000
new transformer.1045158 Phases=1,Windings=3,Buses=[BMT103543246.1 BBT7295899.1.0 BBT7295899.0.2],Conns=[wye wye wye],kvs=[7.967 0.12 0.12],kvas=[35.000000000 35.000000000 35.000000000],Taps=[1,1.000000000,1.000000000],%loadloss=1.410000000,%noloadloss=0.433000000
new transformer.1045214 Phases=3,Windings=2,Buses=[BMT165903375.1.2.3 BBT7300855.1.2.3.0],Conns=[delta wye],kvs=[13.8 0.22],kvas=[75.000000000 75.000000000],Taps=[1,1.000000000],%loadloss=1.340000000,%noloadloss=0.340000000
new transformer.1045417 Phases=3,Windings=2,Buses=[BMT164081421.1.2.3 BBT7313959.1.2.3.0],Conns=[delta wye],kvs=[13.8 0.22],kvas=[100.000000000 100.000000000],Taps=[1,1.000000000],%loadloss=1.330000000,%noloadloss=0.390000000
new transformer.1045501 Phases=3,Windings=2,Buses=[BMT167282067.1.2.3 BBT7320791.1.2.3.0],Conns=[delta wye],kvs=[13.8 0.22],kvas=[45.000000000 45.000000000],Taps=[1,1.000000000],%loadloss=1.522000000,%noloadloss=0.377777778
new transformer.1045641 Phases=1,Windings=3,Buses=[BMT160756948.2 BBT7327994.1.0 BBT7327994.0.2],Conns=[wye wye wye],kvs=[7.967 0.12 0.12],kvas=[5.000000000 5.000000000 5.000000000],Taps=[1,1.000000000,1.000000000],%loadloss=1.900000000,%noloadloss=0.600000000
new transformer.1045648 Phases=1,Windings=3,Buses=[BMT103333925.2 BBT7328022.1.0 BBT7328022.0.2],Conns=[wye wye wye],kvs=[7.967 0.12 0.12],kvas=[15.000000000 15.000000000 15.000000000],Taps=[1,1.000000000,1.000000000],%loadloss=1.600000000,%noloadloss=0.400000000
new transformer.1045655 Phases=1,Windings=3,Buses=[BMT103333932.2 BBT7328036.1.0 BBT7328036.0.2],Conns=[wye wye wye],kvs=[7.967 0.12 0.12],kvas=[5.000000000 5.000000000 5.000000000],Taps=[1,1.000000000,1.000000000],%loadloss=1.900000000,%noloadloss=0.600000000
new transformer.1045711 Phases=1,Windings=3,Buses=[BMT173209879.2 BBT7329457.1.0 BBT7329457.0.2],Conns=[wye wye wye],kvs=[7.967 0.12 0.12],kvas=[5.000000000 5.000000000 5.000000000],Taps=[1,1.000000000,1.000000000],%loadloss=1.900000000,%noloadloss=0.600000000
new transformer.1046152 Phases=1,Windings=3,Buses=[BMT103394139.3 BBT7346460.1.0 BBT7346460.0.2],Conns=[wye wye wye],kvs=[7.967 0.12 0.12],kvas=[15.000000000 15.000000000 15.000000000],Taps=[1,1.000000000,1.000000000],%loadloss=1.600000000,%noloadloss=0.400000000
new transformer.1046173 Phases=1,Windings=3,Buses=[BMT103360336.1 BBT7347678.1.0 BBT7347678.0.2],Conns=[wye wye wye],kvs=[7.967 0.12 0.12],kvas=[5.000000000 5.000000000 5.000000000],Taps=[1,1.000000000,1.000000000],%loadloss=1.900000000,%noloadloss=0.600000000
new transformer.1046264 Phases=1,Windings=3,Buses=[BMT103363570.2 BBT7351304.1.0 BBT7351304.0.2],Conns=[wye wye wye],kvs=[7.967 0.12 0.12],kvas=[5.000000000 5.000000000 5.000000000],Taps=[1,1.000000000,1.000000000],%loadloss=1.900000000,%noloadloss=0.600000000
new transformer.1046271 Phases=1,Windings=3,Buses=[BMT103363577.2 BBT7351325.1.0 BBT7351325.0.2],Conns=[wye wye wye],kvs=[7.967 0.12 0.12],kvas=[10.000000000 10.000000000 10.000000000],Taps=[1,1.000000000,1.000000000],%loadloss=1.800000000,%noloadloss=0.450000000
new transformer.1052088 Phases=1,Windings=3,Buses=[BMT160425547.1 BBT7664267.1.0 BBT7664267.0.2],Conns=[wye wye wye],kvs=[7.967 0.12 0.12],kvas=[5.000000000 5.000000000 5.000000000],Taps=[1,1.000000000,1.000000000],%loadloss=1.900000000,%noloadloss=0.600000000
new transformer.1052249 Phases=1,Windings=3,Buses=[BMT103393894.1 BBT7673661.1.0 BBT7673661.0.2],Conns=[wye wye wye],kvs=[7.967 0.12 0.12],kvas=[5.000000000 5.000000000 5.000000000],Taps=[1,1.000000000,1.000000000],%loadloss=1.900000000,%noloadloss=0.600000000
new transformer.1052277 Phases=1,Windings=3,Buses=[BMT103331825.3 BBT7676846.1.0 BBT7676846.0.2],Conns=[wye wye wye],kvs=[7.967 0.12 0.12],kvas=[10.000000000 10.000000000 10.000000000],Taps=[1,1.000000000,1.000000000],%loadloss=1.800000000,%noloadloss=0.450000000
new transformer.1052284 Phases=1,Windings=3,Buses=[BMT103331811.3 BBT7676860.1.0 BBT7676860.0.2],Conns=[wye wye wye],kvs=[7.967 0.12 0.12],kvas=[5.000000000 5.000000000 5.000000000],Taps=[1,1.000000000,1.000000000],%loadloss=1.900000000,%noloadloss=0.600000000
new transformer.1052410 Phases=1,Windings=3,Buses=[BMT103388749.2 BBT7684567.1.0 BBT7684567.0.2],Conns=[wye wye wye],kvs=[7.967 0.12 0.12],kvas=[10.000000000 10.000000000 10.000000000],Taps=[1,1.000000000,1.000000000],%loadloss=1.800000000,%noloadloss=0.450000000
new transformer.1052963 Phases=1,Windings=3,Buses=[BMT123292682.3 BBT7714597.1.0 BBT7714597.0.2],Conns=[wye wye wye],kvs=[7.967 0.12 0.12],kvas=[5.000000000 5.000000000 5.000000000],Taps=[1,1.000000000,1.000000000],%loadloss=1.900000000,%noloadloss=0.600000000
new transformer.1052970 Phases=1,Windings=3,Buses=[BMT159723121.3 BBT7714646.1.0 BBT7714646.0.2],Conns=[wye wye wye],kvs=[7.967 0.12 0.12],kvas=[5.000000000 5.000000000 5.000000000],Taps=[1,1.000000000,1.000000000],%loadloss=1.900000000,%noloadloss=0.600000000
new transformer.1052991 Phases=1,Windings=3,Buses=[BMT159723123.3 BBT7714709.1.0 BBT7714709.0.2],Conns=[wye wye wye],kvs=[7.967 0.12 0.12],kvas=[5.000000000 5.000000000 5.000000000],Taps=[1,1.000000000,1.000000000],%loadloss=1.900000000,%noloadloss=0.600000000
new transformer.1053005 Phases=1,Windings=3,Buses=[BMT159723125.3 BBT7714807.1.0 BBT7714807.0.2],Conns=[wye wye wye],kvs=[7.967 0.12 0.12],kvas=[5.000000000 5.000000000 5.000000000],Taps=[1,1.000000000,1.000000000],%loadloss=1.900000000,%noloadloss=0.600000000
new transformer.1053019 Phases=1,Windings=3,Buses=[BMT159723127.3 BBT7715059.1.0 BBT7715059.0.2],Conns=[wye wye wye],kvs=[7.967 0.12 0.12],kvas=[5.000000000 5.000000000 5.000000000],Taps=[1,1.000000000,1.000000000],%loadloss=1.900000000,%noloadloss=0.600000000
new transformer.1053026 Phases=1,Windings=3,Buses=[BMT159723126.3 BBT7715220.1.0 BBT7715220.0.2],Conns=[wye wye wye],kvs=[7.967 0.12 0.12],kvas=[5.000000000 5.000000000 5.000000000],Taps=[1,1.000000000,1.000000000],%loadloss=1.900000000,%noloadloss=0.600000000
new transformer.1036296 Phases=1,Windings=3,Buses=[BMT174953888.1 BBT6665122.1.0 BBT6665122.0.2],Conns=[wye wye wye],kvs=[7.967 0.12 0.12],kvas=[5.000000000 5.000000000 5.000000000],Taps=[1,1.000000000,1.000000000],%loadloss=1.900000000,%noloadloss=0.600000000
new transformer.1036324 Phases=1,Windings=3,Buses=[BMT175464138.1 BBT6665598.1.0 BBT6665598.0.2],Conns=[wye wye wye],kvs=[7.967 0.12 0.12],kvas=[5.000000000 5.000000000 5.000000000],Taps=[1,1.000000000,1.000000000],%loadloss=1.900000000,%noloadloss=0.600000000
new transformer.1036366 Phases=1,Windings=3,Buses=[BMT103379460.1 BBT6669672.1.0 BBT6669672.0.2],Conns=[wye wye wye],kvs=[7.967 0.12 0.12],kvas=[35.000000000 35.000000000 35.000000000],Taps=[1,1.000000000,1.000000000],%loadloss=1.410000000,%noloadloss=0.433000000
new transformer.1043688 Phases=1,Windings=3,Buses=[BMT103376863.1 BBT7218983.1.0 BBT7218983.0.2],Conns=[wye wye wye],kvs=[7.967 0.12 0.12],kvas=[15.000000000 15.000000000 15.000000000],Taps=[1,1.000000000,1.000000000],%loadloss=1.833000000,%noloadloss=0.433000000
new transformer.1043737 Phases=1,Windings=3,Buses=[BMT164116851.2 BBT7219606.1.0 BBT7219606.0.2],Conns=[wye wye wye],kvs=[7.967 0.12 0.12],kvas=[10.000000000 10.000000000 10.000000000],Taps=[1,1.000000000,1.000000000],%loadloss=1.800000000,%noloadloss=0.450000000
new transformer.1043758 Phases=1,Windings=3,Buses=[BMT103315935.3 BBT7219781.1.0 BBT7219781.0.2],Conns=[wye wye wye],kvs=[7.967 0.12 0.12],kvas=[10.000000000 10.000000000 10.000000000],Taps=[1,1.000000000,1.000000000],%loadloss=1.800000000,%noloadloss=0.450000000
new transformer.1043877 Phases=1,Windings=3,Buses=[BMT103337362.1 BBT7222182.1.0 BBT7222182.0.2],Conns=[wye wye wye],kvs=[7.967 0.12 0.12],kvas=[5.000000000 5.000000000 5.000000000],Taps=[1,1.000000000,1.000000000],%loadloss=1.900000000,%noloadloss=0.600000000
new transformer.1044129 Phases=1,Windings=3,Buses=[BMT166573771.3 BBT7233354.1.0 BBT7233354.0.2],Conns=[wye wye wye],kvs=[7.967 0.12 0.12],kvas=[10.000000000 10.000000000 10.000000000],Taps=[1,1.000000000,1.000000000],%loadloss=1.800000000,%noloadloss=0.450000000
new transformer.1044143 Phases=1,Windings=3,Buses=[BMT157562384.3 BBT7235279.1.0 BBT7235279.0.2],Conns=[wye wye wye],kvs=[7.967 0.12 0.12],kvas=[5.000000000 5.000000000 5.000000000],Taps=[1,1.000000000,1.000000000],%loadloss=1.900000000,%noloadloss=0.600000000
new transformer.1044157 Phases=1,Windings=3,Buses=[BMT167977174.1 BBT7235433.1.0 BBT7235433.0.2],Conns=[wye wye wye],kvs=[7.967 0.12 0.12],kvas=[5.000000000 5.000000000 5.000000000],Taps=[1,1.000000000,1.000000000],%loadloss=1.900000000,%noloadloss=0.600000000
new transformer.1044234 Phases=1,Windings=3,Buses=[BMT154497918.1 BBT7235769.1.0 BBT7235769.0.2],Conns=[wye wye wye],kvs=[7.967 0.12 0.12],kvas=[10.000000000 10.000000000 10.000000000],Taps=[1,1.000000000,1.000000000],%loadloss=1.800000000,%noloadloss=0.450000000
new transformer.1044318 Phases=1,Windings=3,Buses=[BMT137436952.3 BBT7238002.1.0 BBT7238002.0.2],Conns=[wye wye wye],kvs=[7.967 0.12 0.12],kvas=[10.000000000 10.000000000 10.000000000],Taps=[1,1.000000000,1.000000000],%loadloss=1.800000000,%noloadloss=0.450000000
new transformer.1044556 Phases=1,Windings=3,Buses=[BMT103360686.1 BBT7251778.1.0 BBT7251778.0.2],Conns=[wye wye wye],kvs=[7.967 0.12 0.12],kvas=[35.000000000 35.000000000 35.000000000],Taps=[1,1.000000000,1.000000000],%loadloss=1.410000000,%noloadloss=0.433000000
new transformer.1050282 Phases=1,Windings=3,Buses=[BMT153549500.1 BBT7517330.1.0 BBT7517330.0.2],Conns=[wye wye wye],kvs=[7.967 0.12 0.12],kvas=[5.000000000 5.000000000 5.000000000],Taps=[1,1.000000000,1.000000000],%loadloss=1.900000000,%noloadloss=0.600000000
new transformer.1050324 Phases=1,Windings=3,Buses=[BMT103399515.2 BBT7522153.1.0 BBT7522153.0.2],Conns=[wye wye wye],kvs=[7.967 0.12 0.12],kvas=[10.000000000 10.000000000 10.000000000],Taps=[1,1.000000000,1.000000000],%loadloss=1.800000000,%noloadloss=0.450000000
new transformer.1050772 Phases=1,Windings=3,Buses=[BMT167784204.2 BBT7573533.1.0 BBT7573533.0.2],Conns=[wye wye wye],kvs=[7.967 0.12 0.12],kvas=[10.000000000 10.000000000 10.000000000],Taps=[1,1.000000000,1.000000000],%loadloss=1.800000000,%noloadloss=0.450000000
new transformer.1050905 Phases=1,Windings=3,Buses=[BMT174395320.3 BBT7581142.1.0 BBT7581142.0.2],Conns=[wye wye wye],kvs=[7.967 0.12 0.12],kvas=[5.000000000 5.000000000 5.000000000],Taps=[1,1.000000000,1.000000000],%loadloss=1.900000000,%noloadloss=0.600000000
new transformer.1051115 Phases=1,Windings=3,Buses=[BMT103380216.1 BBT7587610.1.0 BBT7587610.0.2],Conns=[wye wye wye],kvs=[7.967 0.12 0.12],kvas=[15.000000000 15.000000000 15.000000000],Taps=[1,1.000000000,1.000000000],%loadloss=1.600000000,%noloadloss=0.400000000
new transformer.1051766 Phases=1,Windings=3,Buses=[BMT148035364.3 BBT7640285.1.0 BBT7640285.0.2],Conns=[wye wye wye],kvs=[7.967 0.12 0.12],kvas=[15.000000000 15.000000000 15.000000000],Taps=[1,1.000000000,1.000000000],%loadloss=1.600000000,%noloadloss=0.400000000
new transformer.1051787 Phases=1,Windings=3,Buses=[BMT124701810.2 BBT7645304.1.0 BBT7645304.0.2],Conns=[wye wye wye],kvs=[7.967 0.12 0.12],kvas=[35.000000000 35.000000000 35.000000000],Taps=[1,1.000000000,1.000000000],%loadloss=1.410000000,%noloadloss=0.433000000
new transformer.1051857 Phases=1,Windings=3,Buses=[BMT152862754.3 BBT7650400.1.0 BBT7650400.0.2],Conns=[wye wye wye],kvs=[7.967 0.12 0.12],kvas=[5.000000000 5.000000000 5.000000000],Taps=[1,1.000000000,1.000000000],%loadloss=1.900000000,%noloadloss=0.600000000
new transformer.1052004 Phases=1,Windings=3,Buses=[BMT160136661.3 BBT7660977.1.0 BBT7660977.0.2],Conns=[wye wye wye],kvs=[7.967 0.12 0.12],kvas=[10.000000000 10.000000000 10.000000000],Taps=[1,1.000000000,1.000000000],%loadloss=1.800000000,%noloadloss=0.450000000
new transformer.1057702 Phases=1,Windings=3,Buses=[BMT103418254.1 BBT10055047.1.0 BBT10055047.0.2],Conns=[wye wye wye],kvs=[7.967 0.12 0.12],kvas=[10.000000000 10.000000000 10.000000000],Taps=[1,1.000000000,1.000000000],%loadloss=1.800000000,%noloadloss=0.450000000
new transformer.1049309 Phases=1,Windings=3,Buses=[BMT103332392.1 BBT7463059.1.0 BBT7463059.0.2],Conns=[wye wye wye],kvs=[7.967 0.12 0.12],kvas=[5.000000000 5.000000000 5.000000000],Taps=[1,1.000000000,1.000000000],%loadloss=1.900000000,%noloadloss=0.600000000
new transformer.1049421 Phases=1,Windings=3,Buses=[BMT103317958.2 BBT7465439.1.0 BBT7465439.0.2],Conns=[wye wye wye],kvs=[7.967 0.12 0.12],kvas=[5.000000000 5.000000000 5.000000000],Taps=[1,1.000000000,1.000000000],%loadloss=1.900000000,%noloadloss=0.600000000
new transformer.1054601 Phases=3,Windings=2,Buses=[BMT103318077.1.2.3 BBT8315484.1.2.3.0],Conns=[delta wye],kvs=[13.8 0.22],kvas=[150.000000000 150.000000000],Taps=[1,1.000000000],%loadloss=1.127000000,%noloadloss=0.280000000
new transformer.1059669 Phases=1,Windings=3,Buses=[BMT167178235.2 BBT11004590.1.0 BBT11004590.0.2],Conns=[wye wye wye],kvs=[7.967 0.12 0.12],kvas=[5.000000000 5.000000000 5.000000000],Taps=[1,1.000000000,1.000000000],%loadloss=1.900000000,%noloadloss=0.600000000
new transformer.1060390 Phases=1,Windings=3,Buses=[BMT103541867.2 BBT11457980.1.0 BBT11457980.0.2],Conns=[wye wye wye],kvs=[7.967 0.12 0.12],kvas=[5.000000000 5.000000000 5.000000000],Taps=[1,1.000000000,1.000000000],%loadloss=1.900000000,%noloadloss=0.600000000
new transformer.1060404 Phases=1,Windings=3,Buses=[BMT103541615.2 BBT11458855.1.0 BBT11458855.0.2],Conns=[wye wye wye],kvs=[7.967 0.12 0.12],kvas=[15.000000000 15.000000000 15.000000000],Taps=[1,1.000000000,1.000000000],%loadloss=1.600000000,%noloadloss=0.400000000
new transformer.1060411 Phases=1,Windings=3,Buses=[BMT103541552.2 BBT11459555.1.0 BBT11459555.0.2],Conns=[wye wye wye],kvs=[7.967 0.12 0.12],kvas=[10.000000000 10.000000000 10.000000000],Taps=[1,1.000000000,1.000000000],%loadloss=1.800000000,%noloadloss=0.450000000
new transformer.1060418 Phases=1,Windings=3,Buses=[BMT103541531.2 BBT11460696.1.0 BBT11460696.0.2],Conns=[wye wye wye],kvs=[7.967 0.12 0.12],kvas=[5.000000000 5.000000000 5.000000000],Taps=[1,1.000000000,1.000000000],%loadloss=1.900000000,%noloadloss=0.600000000
new transformer.1060572 Phases=1,Windings=3,Buses=[BMT103541902.2 BBT11478735.1.0 BBT11478735.0.2],Conns=[wye wye wye],kvs=[7.967 0.12 0.12],kvas=[5.000000000 5.000000000 5.000000000],Taps=[1,1.000000000,1.000000000],%loadloss=1.900000000,%noloadloss=0.600000000
new transformer.1060642 Phases=1,Windings=3,Buses=[BMT103541489.2 BBT11527112.1.0 BBT11527112.0.2],Conns=[wye wye wye],kvs=[7.967 0.12 0.12],kvas=[5.000000000 5.000000000 5.000000000],Taps=[1,1.000000000,1.000000000],%loadloss=1.900000000,%noloadloss=0.600000000
new transformer.1060656 Phases=1,Windings=3,Buses=[BMT103353882.2 BBT11537276.1.0 BBT11537276.0.2],Conns=[wye wye wye],kvs=[7.967 0.12 0.12],kvas=[5.000000000 5.000000000 5.000000000],Taps=[1,1.000000000,1.000000000],%loadloss=1.900000000,%noloadloss=0.600000000
new transformer.1061181 Phases=1,Windings=3,Buses=[BMT164840159.3 BBT11668232.1.0 BBT11668232.0.2],Conns=[wye wye wye],kvs=[7.967 0.12 0.12],kvas=[5.000000000 5.000000000 5.000000000],Taps=[1,1.000000000,1.000000000],%loadloss=1.900000000,%noloadloss=0.600000000
new transformer.1061209 Phases=1,Windings=3,Buses=[BMT164840161.3 BBT11680370.1.0 BBT11680370.0.2],Conns=[wye wye wye],kvs=[7.967 0.12 0.12],kvas=[5.000000000 5.000000000 5.000000000],Taps=[1,1.000000000,1.000000000],%loadloss=1.900000000,%noloadloss=0.600000000
new transformer.1061223 Phases=1,Windings=3,Buses=[BMT164840164.3 BBT11685347.1.0 BBT11685347.0.2],Conns=[wye wye wye],kvs=[7.967 0.12 0.12],kvas=[5.000000000 5.000000000 5.000000000],Taps=[1,1.000000000,1.000000000],%loadloss=1.900000000,%noloadloss=0.600000000
new transformer.1061335 Phases=1,Windings=3,Buses=[BMT164840165.3 BBT11699851.1.0 BBT11699851.0.2],Conns=[wye wye wye],kvs=[7.967 0.12 0.12],kvas=[5.000000000 5.000000000 5.000000000],Taps=[1,1.000000000,1.000000000],%loadloss=1.900000000,%noloadloss=0.600000000
new transformer.1061363 Phases=1,Windings=3,Buses=[BMT164840166.3 BBT11705276.1.0 BBT11705276.0.2],Conns=[wye wye wye],kvs=[7.967 0.12 0.12],kvas=[5.000000000 5.000000000 5.000000000],Taps=[1,1.000000000,1.000000000],%loadloss=1.900000000,%noloadloss=0.600000000
new transformer.1063421 Phases=1,Windings=3,Buses=[BMT103374014.2 BBT12541797.1.0 BBT12541797.0.2],Conns=[wye wye wye],kvs=[7.967 0.12 0.12],kvas=[5.000000000 5.000000000 5.000000000],Taps=[1,1.000000000,1.000000000],%loadloss=1.900000000,%noloadloss=0.600000000
new transformer.1063575 Phases=1,Windings=3,Buses=[BMT103397128.3 BBT12622626.1.0 BBT12622626.0.2],Conns=[wye wye wye],kvs=[7.967 0.12 0.12],kvas=[5.000000000 5.000000000 5.000000000],Taps=[1,1.000000000,1.000000000],%loadloss=1.900000000,%noloadloss=0.600000000
new transformer.1063603 Phases=1,Windings=3,Buses=[BMT103399732.2 BBT12633336.1.0 BBT12633336.0.2],Conns=[wye wye wye],kvs=[7.967 0.12 0.12],kvas=[5.000000000 5.000000000 5.000000000],Taps=[1,1.000000000,1.000000000],%loadloss=1.900000000,%noloadloss=0.600000000
new transformer.1063918 Phases=1,Windings=3,Buses=[BMT150051674.2 BBT12765139.1.0 BBT12765139.0.2],Conns=[wye wye wye],kvs=[7.967 0.12 0.12],kvas=[5.000000000 5.000000000 5.000000000],Taps=[1,1.000000000,1.000000000],%loadloss=1.900000000,%noloadloss=0.600000000
new transformer.1064051 Phases=1,Windings=3,Buses=[BMT103542896.1 BBT12800307.1.0 BBT12800307.0.2],Conns=[wye wye wye],kvs=[7.967 0.12 0.12],kvas=[5.000000000 5.000000000 5.000000000],Taps=[1,1.000000000,1.000000000],%loadloss=1.900000000,%noloadloss=0.600000000
new transformer.1064618 Phases=1,Windings=3,Buses=[BMT103415622.1 BBT13044488.1.0 BBT13044488.0.2],Conns=[wye wye wye],kvs=[7.967 0.12 0.12],kvas=[5.000000000 5.000000000 5.000000000],Taps=[1,1.000000000,1.000000000],%loadloss=1.900000000,%noloadloss=0.600000000
new transformer.1064632 Phases=1,Windings=3,Buses=[BMT176039840.2 BBT13060791.1.0 BBT13060791.0.2],Conns=[wye wye wye],kvs=[7.967 0.12 0.12],kvas=[35.000000000 35.000000000 35.000000000],Taps=[1,1.000000000,1.000000000],%loadloss=1.410000000,%noloadloss=0.433000000
new transformer.1065129 Phases=1,Windings=3,Buses=[BMT127809061.1 BBT13227097.1.0 BBT13227097.0.2],Conns=[wye wye wye],kvs=[7.967 0.12 0.12],kvas=[10.000000000 10.000000000 10.000000000],Taps=[1,1.000000000,1.000000000],%loadloss=1.800000000,%noloadloss=0.450000000
new transformer.1055966 Phases=1,Windings=3,Buses=[BMT164635867.3 BBT9208901.1.0 BBT9208901.0.2],Conns=[wye wye wye],kvs=[7.967 0.12 0.12],kvas=[5.000000000 5.000000000 5.000000000],Taps=[1,1.000000000,1.000000000],%loadloss=1.900000000,%noloadloss=0.600000000
new transformer.1056218 Phases=1,Windings=3,Buses=[BMT103361533.3 BBT9322546.1.0 BBT9322546.0.2],Conns=[wye wye wye],kvs=[7.967 0.12 0.12],kvas=[5.000000000 5.000000000 5.000000000],Taps=[1,1.000000000,1.000000000],%loadloss=1.900000000,%noloadloss=0.600000000
new transformer.1056232 Phases=1,Windings=3,Buses=[BMT103361554.3 BBT9326081.1.0 BBT9326081.0.2],Conns=[wye wye wye],kvs=[7.967 0.12 0.12],kvas=[5.000000000 5.000000000 5.000000000],Taps=[1,1.000000000,1.000000000],%loadloss=1.900000000,%noloadloss=0.600000000
new transformer.1056239 Phases=1,Windings=3,Buses=[BMT103361561.3 BBT9327866.1.0 BBT9327866.0.2],Conns=[wye wye wye],kvs=[7.967 0.12 0.12],kvas=[5.000000000 5.000000000 5.000000000],Taps=[1,1.000000000,1.000000000],%loadloss=1.900000000,%noloadloss=0.600000000
new transformer.1057534 Phases=1,Windings=3,Buses=[BMT165184550.1 BBT9944286.1.0 BBT9944286.0.2],Conns=[wye wye wye],kvs=[7.967 0.12 0.12],kvas=[10.000000000 10.000000000 10.000000000],Taps=[1,1.000000000,1.000000000],%loadloss=1.800000000,%noloadloss=0.450000000
new transformer.1057632 Phases=3,Windings=2,Buses=[BMT103383163.1.2.3 BBT10019599.1.2.3.0],Conns=[delta wye],kvs=[13.8 0.22],kvas=[30.000000000 30.000000000],Taps=[1,1.000000000],%loadloss=1.667000000,%noloadloss=0.433333333
new transformer.1061475 Phases=1,Windings=3,Buses=[BMT127809047.1 BBT11721691.1.0 BBT11721691.0.2],Conns=[wye wye wye],kvs=[7.967 0.12 0.12],kvas=[5.000000000 5.000000000 5.000000000],Taps=[1,1.000000000,1.000000000],%loadloss=1.900000000,%noloadloss=0.600000000
new transformer.1061559 Phases=1,Windings=3,Buses=[BMT103411387.1 BBT11744399.1.0 BBT11744399.0.2],Conns=[wye wye wye],kvs=[7.967 0.12 0.12],kvas=[15.000000000 15.000000000 15.000000000],Taps=[1,1.000000000,1.000000000],%loadloss=1.600000000,%noloadloss=0.400000000
new transformer.1061685 Phases=1,Windings=3,Buses=[BMT167178241.2 BBT11789906.1.0 BBT11789906.0.2],Conns=[wye wye wye],kvs=[7.967 0.12 0.12],kvas=[5.000000000 5.000000000 5.000000000],Taps=[1,1.000000000,1.000000000],%loadloss=1.900000000,%noloadloss=0.600000000
new transformer.1062315 Phases=1,Windings=3,Buses=[BMT103542917.1 BBT12156846.1.0 BBT12156846.0.2],Conns=[wye wye wye],kvs=[7.967 0.12 0.12],kvas=[5.000000000 5.000000000 5.000000000],Taps=[1,1.000000000,1.000000000],%loadloss=1.900000000,%noloadloss=0.600000000
new transformer.1062350 Phases=1,Windings=3,Buses=[BMT176785657.1 BBT12159695.1.0 BBT12159695.0.2],Conns=[wye wye wye],kvs=[7.967 0.12 0.12],kvas=[5.000000000 5.000000000 5.000000000],Taps=[1,1.000000000,1.000000000],%loadloss=1.900000000,%noloadloss=0.600000000
new transformer.1062357 Phases=1,Windings=3,Buses=[BMT112889800.1 BBT12159800.1.0 BBT12159800.0.2],Conns=[wye wye wye],kvs=[7.967 0.12 0.12],kvas=[5.000000000 5.000000000 5.000000000],Taps=[1,1.000000000,1.000000000],%loadloss=1.900000000,%noloadloss=0.600000000
new transformer.1062966 Phases=1,Windings=3,Buses=[BMT103397170.3 BBT12392438.1.0 BBT12392438.0.2],Conns=[wye wye wye],kvs=[7.967 0.12 0.12],kvas=[10.000000000 10.000000000 10.000000000],Taps=[1,1.000000000,1.000000000],%loadloss=1.800000000,%noloadloss=0.450000000
new transformer.1063211 Phases=1,Windings=3,Buses=[BMT123392558.2 BBT12496178.1.0 BBT12496178.0.2],Conns=[wye wye wye],kvs=[7.967 0.12 0.12],kvas=[5.000000000 5.000000000 5.000000000],Taps=[1,1.000000000,1.000000000],%loadloss=1.900000000,%noloadloss=0.600000000
new transformer.1065430 Phases=1,Windings=3,Buses=[BMT103328171.2 BBT13319168.1.0 BBT13319168.0.2],Conns=[wye wye wye],kvs=[7.967 0.12 0.12],kvas=[10.000000000 10.000000000 10.000000000],Taps=[1,1.000000000,1.000000000],%loadloss=1.800000000,%noloadloss=0.450000000
new transformer.1065633 Phases=1,Windings=3,Buses=[BMT175371833.3 BBT13393158.1.0 BBT13393158.0.2],Conns=[wye wye wye],kvs=[7.967 0.12 0.12],kvas=[5.000000000 5.000000000 5.000000000],Taps=[1,1.000000000,1.000000000],%loadloss=1.900000000,%noloadloss=0.600000000
...
